
 OpenBabel11121800523D

 39 45  0  0  0  0  0  0  0  0999 V2000
    7.3775   -7.0214   48.1020 C   0  0  0  0  0  0  0  0  0  0  0  0
    6.5361   -6.7581   46.6394 S   0  0  0  0  0  0  0  0  0  0  0  0
    5.8257   -8.5792   48.2368 N   0  0  0  0  0  0  0  0  0  0  0  0
    6.9034   -7.9877   48.8219 N   0  0  0  0  0  0  0  0  0  0  0  0
    5.5256   -8.0807   47.0559 C   0  0  0  0  0  0  0  0  0  0  0  0
    8.4770   -6.2853   48.3493 N   0  0  0  0  0  0  0  0  0  0  0  0
    9.0076   -8.5952   37.7049 O   0  0  0  0  0  0  0  0  0  0  0  0
    9.6875   -7.2765   37.9287 C   0  0  0  0  0  0  0  0  0  0  0  0
   10.4125   -6.6590   36.8987 C   0  0  0  0  0  0  0  0  0  0  0  0
   11.0370   -5.4297   37.1199 C   0  0  1  0  0  0  0  0  0  0  0  0
   10.9483   -4.8109   38.3690 C   0  0  0  0  0  0  0  0  0  0  0  0
   10.2372   -5.4208   39.4176 C   0  0  0  0  0  0  0  0  0  0  0  0
   10.1292   -4.7780   40.7034 N   0  0  0  0  0  0  0  0  0  0  0  0
    7.1842   -4.9774   46.8100 C   0  0  0  0  0  0  0  0  0  0  0  0
    8.3471   -5.0584   47.5606 C   0  0  0  0  0  0  0  0  0  0  0  0
    8.9920   -4.9057   41.6014 S   0  0  0  0  0  0  0  0  0  0  0  0
    9.5464   -4.5907   43.0236 O   0  0  0  0  0  0  0  0  0  0  0  0
    9.1523   -3.1796   43.4628 O   0  0  0  0  0  0  0  0  0  0  0  0
    7.8040   -3.3582   44.1544 C   0  0  0  0  0  0  0  0  0  0  0  0
    6.9209   -4.5183   43.9505 C   0  0  0  0  0  0  0  0  0  0  0  0
    5.8684   -4.7753   45.3194 C   0  0  0  0  0  0  0  0  0  0  0  0
    4.9675   -3.5848   45.4925 C   0  0  0  0  0  0  0  0  0  0  0  0
    6.6751   -4.9605   46.5759 S   0  0  0  0  0  0  0  0  0  0  0  0
    3.5044  -10.3820   44.7821 C   0  0  0  0  0  0  0  0  0  0  0  0
    4.5200   -8.5594   46.2097 N   0  0  0  0  0  0  0  0  0  0  0  0
    2.1773   -9.9491   45.4307 C   0  0  1  0  0  0  0  0  0  0  0  0
    2.1318   -8.4116   45.3839 C   0  0  0  0  0  0  0  0  0  0  0  0
    3.2372   -7.8256   46.2747 C   0  0  0  0  0  0  0  0  0  0  0  0
    4.6962   -9.9047   45.6219 C   0  0  0  0  0  0  0  0  0  0  0  0
    0.9604  -10.5884   44.7391 C   0  0  0  0  0  0  0  0  0  0  0  0
   -0.3572   -8.8246   43.6278 N   0  0  0  0  0  0  0  0  0  0  0  0
   -1.5176   -8.1708   43.7488 N   0  0  0  0  0  0  0  0  0  0  0  0
   -0.2431   -9.6912   44.6195 C   0  0  0  0  0  0  0  0  0  0  0  0
   -1.3441   -9.6225   45.4158 N   0  0  0  0  0  0  0  0  0  0  0  0
   -3.8057   -8.9288   46.5005 N   0  0  0  0  0  0  0  0  0  0  0  0
   -2.1079   -8.6581   44.8273 C   0  0  0  0  0  0  0  0  0  0  0  0
   -3.3820   -8.3290   45.4259 C   0  0  0  0  0  0  0  0  0  0  0  0
   -2.9866   -9.9112   47.0663 C   0  0  0  0  0  0  0  0  0  0  0  0
   -1.7717  -10.2828   46.5668 C   0  0  0  0  0  0  0  0  0  0  0  0
  2  5  1  0  0  0  0
  2  1  1  0  0  0  0
  3  4  1  0  0  0  0
  3  5  2  0  0  0  0
  4  1  2  0  0  0  0
  6  1  1  0  0  0  0
  6 15  1  0  0  0  0
  6  8  1  0  0  0  0
  7  8  2  0  0  0  0
  8  9  1  0  0  0  0
 10  9  1  6  0  0  0
 10 11  1  0  0  0  0
 10 15  1  0  0  0  0
 11 12  1  0  0  0  0
 12 13  1  0  0  0  0
 13 16  1  0  0  0  0
 13 14  1  0  0  0  0
 14 10  1  0  0  0  0
 16 17  2  0  0  0  0
 16 18  2  0  0  0  0
 16 19  1  0  0  0  0
 19 20  2  0  0  0  0
 20 21  1  0  0  0  0
 21 22  2  0  0  0  0
 22 23  1  0  0  0  0
 23 19  1  0  0  0  0
 24 26  1  0  0  0  0
 24 29  1  0  0  0  0
 25 29  1  0  0  0  0
 25  5  1  0  0  0  0
 25 28  1  0  0  0  0
 26 27  1  0  0  0  0
 26 30  1  6  0  0  0
 27 28  1  0  0  0  0
 30 33  1  0  0  0  0
 31 32  1  0  0  0  0
 31 33  2  0  0  0  0
 32 36  2  0  0  0  0
 33 34  1  0  0  0  0
 34 39  1  0  0  0  0
 34 36  1  0  0  0  0
 35 38  1  0  0  0  0
 35 37  2  0  0  0  0
 36 37  1  0  0  0  0
 38 39  2  0  0  0  0
M  END
>  <CNNaffinity>
8.29966

>  <CNNscore>
0.537199

>  <minimizedAffinity>
17.962

>  <minimizedRMSD>
2.95635

>  <molecular weight>
558.51

$$$$

 OpenBabel11121800523D

 40 46  0  0  0  0  0  0  0  0999 V2000
    5.5712   -7.5044   47.6908 C   0  0  0  0  0  0  0  0  0  0  0  0
    4.6778   -7.3248   46.2465 S   0  0  0  0  0  0  0  0  0  0  0  0
    3.9326   -8.9339   48.0433 N   0  0  0  0  0  0  0  0  0  0  0  0
    5.0728   -8.3637   48.5213 N   0  0  0  0  0  0  0  0  0  0  0  0
    3.6073   -8.5307   46.8331 C   0  0  0  0  0  0  0  0  0  0  0  0
    0.7805  -10.7754   45.5995 C   0  0  0  0  0  0  0  0  0  0  0  0
    2.5333   -9.0184   46.0814 N   0  0  0  0  0  0  0  0  0  0  0  0
   -0.1575   -9.5731   45.3899 C   0  0  0  0  0  0  0  0  0  0  0  0
    0.5986   -8.5570   44.5158 C   0  0  0  0  0  0  0  0  0  0  0  0
    1.8115   -8.0060   45.2800 C   0  0  0  0  0  0  0  0  0  0  0  0
    2.0134  -10.3622   46.4136 C   0  0  0  0  0  0  0  0  0  0  0  0
   -1.5013   -9.9902   44.7668 C   0  0  0  0  0  0  0  0  0  0  0  0
   -1.7759   -8.6415   42.7204 N   0  0  0  0  0  0  0  0  0  0  0  0
   -2.5501   -7.6742   42.2169 N   0  0  0  0  0  0  0  0  0  0  0  0
   -2.1776   -8.9226   43.9481 C   0  0  0  0  0  0  0  0  0  0  0  0
   -3.2395   -8.1366   44.2730 N   0  0  0  0  0  0  0  0  0  0  0  0
   -5.2895   -6.2636   44.1887 N   0  0  0  0  0  0  0  0  0  0  0  0
   -3.4311   -7.3761   43.1572 C   0  0  0  0  0  0  0  0  0  0  0  0
   -4.5099   -6.4139   43.1573 C   0  0  0  0  0  0  0  0  0  0  0  0
   -5.0532   -7.0672   45.3087 C   0  0  0  0  0  0  0  0  0  0  0  0
   -4.0587   -7.9987   45.3925 C   0  0  0  0  0  0  0  0  0  0  0  0
    6.7258   -6.8242   47.8178 N   0  0  0  0  0  0  0  0  0  0  0  0
    6.9108   -6.0765   46.5704 O   0  0  0  0  0  0  0  0  0  0  0  0
    8.4471   -4.9666   46.3198 O   0  0  0  0  0  0  0  0  0  0  0  0
    6.0315   -3.7679   44.2127 N   0  0  0  0  0  0  0  0  0  0  0  0
    5.3391   -2.8773   44.9778 C   0  0  0  0  0  0  0  0  0  0  0  0
    5.8198   -1.6103   44.8974 N   0  0  0  0  0  0  0  0  0  0  0  0
    6.8495   -1.7268   44.0429 C   0  0  0  0  0  0  0  0  0  0  0  0
    7.7004   -0.7127   43.6115 C   0  0  0  0  0  0  0  0  0  0  0  0
    8.7287   -1.0554   42.7170 C   0  0  0  0  0  0  0  0  0  0  0  0
    8.8792   -2.3897   42.2816 C   0  0  0  0  0  0  0  0  0  0  0  0
    8.0020   -3.3927   42.7343 C   0  0  0  0  0  0  0  0  0  0  0  0
    6.9867   -3.0210   43.6238 C   0  0  0  0  0  0  0  0  0  0  0  0
    4.1656   -3.2175   45.8547 C   0  0  0  0  0  0  0  0  0  0  0  0
    3.0054   -2.3738   45.5074 N   0  0  0  0  0  0  0  0  0  0  0  0
    2.3972   -2.8053   44.2315 C   0  0  0  0  0  0  0  0  0  0  0  0
    1.0900   -2.0330   43.9582 C   0  0  0  0  0  0  0  0  0  0  0  0
    0.8909   -1.0033   44.9063 O   0  0  0  0  0  0  0  0  0  0  0  0
    0.7672   -1.5651   46.2003 C   0  0  0  0  0  0  0  0  0  0  0  0
    1.9947   -2.4209   46.5793 C   0  0  0  0  0  0  0  0  0  0  0  0
  2  5  1  0  0  0  0
  2  1  1  0  0  0  0
  3  4  1  0  0  0  0
  3  5  2  0  0  0  0
  4  1  2  0  0  0  0
  6  8  1  0  0  0  0
  6 11  1  0  0  0  0
  7 11  1  0  0  0  0
  7  5  1  0  0  0  0
  7 10  1  0  0  0  0
  8  9  1  0  0  0  0
  8 12  1  0  0  0  0
  9 10  1  0  0  0  0
 12 15  1  0  0  0  0
 13 14  1  0  0  0  0
 13 15  2  0  0  0  0
 14 18  2  0  0  0  0
 15 16  1  0  0  0  0
 16 21  1  0  0  0  0
 16 18  1  0  0  0  0
 17 20  1  0  0  0  0
 17 19  2  0  0  0  0
 18 19  1  0  0  0  0
 20 21  2  0  0  0  0
 22  1  1  0  0  0  0
 22 23  2  0  0  0  0
 22 24  2  0  0  0  0
 22 25  1  0  0  0  0
 25 26  1  0  0  0  0
 26 34  1  0  0  0  0
 26 27  2  0  0  0  0
 27 28  1  0  0  0  0
 28 29  2  0  0  0  0
 29 30  1  0  0  0  0
 30 31  2  0  0  0  0
 31 32  1  0  0  0  0
 32 33  2  0  0  0  0
 33 25  1  0  0  0  0
 33 28  1  0  0  0  0
 34 35  1  0  0  0  0
 35 36  1  0  0  0  0
 36 37  1  0  0  0  0
 37 38  1  0  0  0  0
 38 39  1  0  0  0  0
 39 40  1  0  0  0  0
 40 35  1  0  0  0  0
M  END
>  <CNNaffinity>
7.96191

>  <CNNscore>
0.178028

>  <minimizedAffinity>
4.23529

>  <minimizedRMSD>
0.37508

>  <molecular weight>
534.404

$$$$
