1188313 1 C1Oc2cc[c:1](cc2O1)[C:2](=[O:3])[N:4][c:5]1ccc(Cc2cc[c:5]cc2)cc1.[HH:6]


 37 41  0  0  0  0  0  0  0  0999 V2000
   -3.0872   -7.3633   43.4330 C   0  0  0  0  0  0  0  0  0  0  0  0
   -2.9044   -8.6065   42.8186 C   0  0  0  0  0  0  0  0  0  0  0  0
   -2.0840   -9.5719   43.4097 C   0  0  0  0  0  0  0  0  0  0  0  0
   -1.4357   -9.2961   44.6184 C   0  0  0  0  0  0  0  0  0  0  0  0
   -1.5957   -8.0459   45.2249 C   0  0  0  0  0  0  0  0  0  0  0  0
   -2.4155   -7.0816   44.6328 C   0  0  0  0  0  0  0  0  0  0  0  0
   -5.1771   -4.4639   43.0741 O   0  0  0  0  0  0  0  0  0  0  0  0
   -4.9969   -5.6701   43.3896 C   0  0  0  0  0  0  0  0  0  0  0  0
   -3.9063   -6.3813   42.7872 N   0  0  0  0  0  0  0  0  0  0  0  0
   -3.7027   -6.1762   41.8461 H   0  0  0  0  0  0  0  0  0  0  0  0
   -5.9451   -6.3249   44.3157 C   0  0  0  0  0  0  0  0  0  0  0  0
   -5.4856   -6.9362   45.5022 C   0  0  0  0  0  0  0  0  0  0  0  0
   -6.4234   -7.5571   46.3217 C   0  0  0  0  0  0  0  0  0  0  0  0
   -7.7422   -7.5959   46.0064 C   0  0  0  0  0  0  0  0  0  0  0  0
   -8.4312   -8.2716   46.9936 O   0  0  0  0  0  0  0  0  0  0  0  0
   -7.4868   -8.6833   47.9919 C   0  0  0  0  0  0  0  0  0  0  0  0
   -6.2178   -8.2071   47.5221 O   0  0  0  0  0  0  0  0  0  0  0  0
   -8.2409   -7.0201   44.8420 C   0  0  0  0  0  0  0  0  0  0  0  0
   -7.3224   -6.3816   43.9893 C   0  0  0  0  0  0  0  0  0  0  0  0
   -0.5441  -10.3189   45.2388 C   0  0  0  0  0  0  0  0  0  0  0  0
    0.8453   -9.7940   45.3812 C   0  0  0  0  0  0  0  0  0  0  0  0
    1.8454  -10.5990   45.9365 C   0  0  0  0  0  0  0  0  0  0  0  0
    3.1419  -10.0993   46.0894 C   0  0  0  0  0  0  0  0  0  0  0  0
    3.4492   -8.7930   45.6931 C   0  0  0  0  0  0  0  0  0  0  0  0
    2.4405   -7.9878   45.1418 C   0  0  0  0  0  0  0  0  0  0  0  0
    1.1437   -8.4856   44.9881 C   0  0  0  0  0  0  0  0  0  0  0  0
    5.3329   -7.7834   47.0442 C   0  0  0  0  0  0  0  0  0  0  0  0
    4.8464   -8.2773   45.8680 N   0  0  0  0  0  0  0  0  0  0  0  0
    4.6643   -7.7241   48.0478 O   0  0  0  0  0  0  0  0  0  0  0  0
    5.3875   -8.3392   45.0038 H   0  0  0  0  0  0  0  0  0  0  0  0
    6.7816   -7.3299   46.9722 C   0  0  0  0  0  0  0  0  0  0  0  0
    6.9414   -5.8269   46.9720 C   0  0  0  0  0  0  0  0  0  0  0  0
    6.1116   -5.0269   46.1770 C   0  0  0  0  0  0  0  0  0  0  0  0
    6.2544   -3.6377   46.1617 C   0  0  0  0  0  0  0  0  0  0  0  0
    7.2417   -3.0284   46.9367 C   0  0  0  0  0  0  0  0  0  0  0  0
    8.0795   -3.8146   47.7293 C   0  0  0  0  0  0  0  0  0  0  0  0
    7.9278   -5.2023   47.7459 C   0  0  0  0  0  0  0  0  0  0  0  0
 29 27  2  0  0  0
 28 27  1  0  0  0
 27 31  1  0  0  0
 31 32  1  0  0  0
 32 33  2  0  0  0
 32 37  1  0  0  0
 33 34  1  0  0  0
 34 35  2  0  0  0
 35 36  1  0  0  0
 36 37  2  0  0  0
  7  8  2  0  0  0
  8  9  1  0  0  0
  8 11  1  0  0  0
  9  1  1  0  0  0
  1  2  2  0  0  0
  2  3  1  0  0  0
  3  4  2  0  0  0
  4 20  1  0  0  0
  4  5  1  0  0  0
 20 21  1  0  0  0
 21 22  2  0  0  0
 22 23  1  0  0  0
 23 24  2  0  0  0
 24 25  1  0  0  0
 25 26  2  0  0  0
 26 21  1  0  0  0
  5  6  2  0  0  0
  6  1  1  0  0  0
 11 12  2  0  0  0
 12 13  1  0  0  0
 13 14  2  0  0  0
 14 15  1  0  0  0
 14 18  1  0  0  0
 15 16  1  0  0  0
 16 17  1  0  0  0
 17 13  1  0  0  0
 18 19  2  0  0  0
 19 11  1  0  0  0
 28 24  1  0  0  0
 28 30  1  0  0  0
  9 10  1  0  0  0
M  END
>  <minimizedAffinity>
-12.3044

>  <minimizedRMSD>
3.01826

>  <molecular weight>
442.337

$$$$
1188311 1 C1Oc2cc[c:1](cc2O1)[C:2](=[O:3])[N:4][c:5]1ccc(Cc2cc[c:5]cc2)cc1.[HH:6]


 37 41  0  0  0  0  0  0  0  0999 V2000
   -1.3687   -8.7114   45.0539 C   0  0  0  0  0  0  0  0  0  0  0  0
   -0.2004   -7.9838   44.8009 C   0  0  0  0  0  0  0  0  0  0  0  0
    1.0538   -8.5856   44.9439 C   0  0  0  0  0  0  0  0  0  0  0  0
    1.1474   -9.9245   45.3403 C   0  0  0  0  0  0  0  0  0  0  0  0
   -0.0159  -10.6546   45.6026 C   0  0  0  0  0  0  0  0  0  0  0  0
   -1.2687  -10.0522   45.4590 C   0  0  0  0  0  0  0  0  0  0  0  0
   -2.6982   -7.8694   42.5725 O   0  0  0  0  0  0  0  0  0  0  0  0
   -3.2816   -7.6945   43.6779 C   0  0  0  0  0  0  0  0  0  0  0  0
   -2.6356   -8.0548   44.9090 N   0  0  0  0  0  0  0  0  0  0  0  0
   -3.1120   -7.8273   45.7400 H   0  0  0  0  0  0  0  0  0  0  0  0
   -4.6347   -7.1099   43.7067 C   0  0  0  0  0  0  0  0  0  0  0  0
   -5.6730   -7.7593   44.4087 C   0  0  0  0  0  0  0  0  0  0  0  0
   -6.9295   -7.1591   44.4136 C   0  0  0  0  0  0  0  0  0  0  0  0
   -7.1716   -5.9854   43.7749 C   0  0  0  0  0  0  0  0  0  0  0  0
   -8.4940   -5.6289   43.9530 O   0  0  0  0  0  0  0  0  0  0  0  0
   -9.1221   -6.6411   44.7540 C   0  0  0  0  0  0  0  0  0  0  0  0
   -8.0888   -7.6004   45.0219 O   0  0  0  0  0  0  0  0  0  0  0  0
   -6.1800   -5.3086   43.0714 C   0  0  0  0  0  0  0  0  0  0  0  0
   -4.8969   -5.8856   43.0416 C   0  0  0  0  0  0  0  0  0  0  0  0
    2.4832  -10.5649   45.5211 C   0  0  0  0  0  0  0  0  0  0  0  0
    3.4923   -9.5677   45.9849 C   0  0  0  0  0  0  0  0  0  0  0  0
    4.2198   -8.8268   45.0486 C   0  0  0  0  0  0  0  0  0  0  0  0
    5.1507   -7.8772   45.4792 C   0  0  0  0  0  0  0  0  0  0  0  0
    5.3592   -7.6577   46.8499 C   0  0  0  0  0  0  0  0  0  0  0  0
    4.6197   -8.3947   47.7817 C   0  0  0  0  0  0  0  0  0  0  0  0
    3.6898   -9.3469   47.3528 C   0  0  0  0  0  0  0  0  0  0  0  0
    7.6882   -6.7191   47.1233 C   0  0  0  0  0  0  0  0  0  0  0  0
    6.3414   -6.6288   47.3286 N   0  0  0  0  0  0  0  0  0  0  0  0
    8.2022   -7.6843   46.6117 O   0  0  0  0  0  0  0  0  0  0  0  0
    5.8838   -5.8683   47.8342 H   0  0  0  0  0  0  0  0  0  0  0  0
    8.4673   -5.4991   47.5862 C   0  0  0  0  0  0  0  0  0  0  0  0
    7.7688   -4.1920   47.2894 C   0  0  0  0  0  0  0  0  0  0  0  0
    6.9640   -4.0620   46.1509 C   0  0  0  0  0  0  0  0  0  0  0  0
    6.3198   -2.8574   45.8612 C   0  0  0  0  0  0  0  0  0  0  0  0
    6.4822   -1.7578   46.7045 C   0  0  0  0  0  0  0  0  0  0  0  0
    7.2864   -1.8720   47.8397 C   0  0  0  0  0  0  0  0  0  0  0  0
    7.9226   -3.0808   48.1281 C   0  0  0  0  0  0  0  0  0  0  0  0
 29 27  2  0  0  0
 28 27  1  0  0  0
 27 31  1  0  0  0
 31 32  1  0  0  0
 32 33  2  0  0  0
 32 37  1  0  0  0
 33 34  1  0  0  0
 34 35  2  0  0  0
 35 36  1  0  0  0
 36 37  2  0  0  0
  7  8  2  0  0  0
  8  9  1  0  0  0
  8 11  1  0  0  0
  9  1  1  0  0  0
  1  2  2  0  0  0
  2  3  1  0  0  0
  3  4  2  0  0  0
  4 20  1  0  0  0
  4  5  1  0  0  0
 20 21  1  0  0  0
 21 22  2  0  0  0
 22 23  1  0  0  0
 23 24  2  0  0  0
 24 25  1  0  0  0
 25 26  2  0  0  0
 26 21  1  0  0  0
  5  6  2  0  0  0
  6  1  1  0  0  0
 11 12  2  0  0  0
 12 13  1  0  0  0
 13 14  2  0  0  0
 14 15  1  0  0  0
 14 18  1  0  0  0
 15 16  1  0  0  0
 16 17  1  0  0  0
 17 13  1  0  0  0
 18 19  2  0  0  0
 19 11  1  0  0  0
 28 24  1  0  0  0
 28 30  1  0  0  0
  9 10  1  0  0  0
M  END
>  <minimizedAffinity>
-12.1959

>  <minimizedRMSD>
2.90026

>  <molecular weight>
442.337

$$$$
1999377 1 C1C2(C[C:6][N:4]([C:2]([c:1]3cc[c:5]cc3)=[O:3])[C:5]1)NC(=NO2)c1ccccc1.[HH:6]


 36 40  0  0  0  0  0  0  0  0999 V2000
    2.7699   -9.8025   45.8034 C   0  0  0  0  0  0  0  0  0  0  0  0
    3.0842  -11.0248   45.8160 O   0  0  0  0  0  0  0  0  0  0  0  0
    1.4598   -9.4189   45.3491 N   0  0  0  0  0  0  0  0  0  0  0  0
    1.2583   -8.1657   44.6238 C   0  0  0  0  0  0  0  0  0  0  0  0
   -0.0749   -7.5389   45.0250 C   0  0  0  0  0  0  0  0  0  0  0  0
   -1.2173   -8.5449   44.8734 C   0  0  0  0  0  0  0  0  0  0  0  0
   -0.9340   -9.8243   45.6629 C   0  0  0  0  0  0  0  0  0  0  0  0
    0.4080  -10.4291   45.2562 C   0  0  0  0  0  0  0  0  0  0  0  0
   -2.4697   -7.9496   45.3188 N   0  0  0  0  0  0  0  0  0  0  0  0
   -3.2993   -7.9609   44.1604 C   0  0  0  0  0  0  0  0  0  0  0  0
   -2.7215   -8.4668   43.1259 N   0  0  0  0  0  0  0  0  0  0  0  0
   -1.4553   -8.8381   43.5023 O   0  0  0  0  0  0  0  0  0  0  0  0
   -2.6927   -7.6150   46.2174 H   0  0  0  0  0  0  0  0  0  0  0  0
    5.6758   -6.9287   47.1380 C   0  0  0  0  0  0  0  0  0  0  0  0
    5.2995   -7.9859   47.9713 C   0  0  0  0  0  0  0  0  0  0  0  0
    4.3509   -8.9195   47.5451 C   0  0  0  0  0  0  0  0  0  0  0  0
    3.7576   -8.8063   46.2796 C   0  0  0  0  0  0  0  0  0  0  0  0
    4.1451   -7.7513   45.4408 C   0  0  0  0  0  0  0  0  0  0  0  0
    5.0939   -6.8181   45.8670 C   0  0  0  0  0  0  0  0  0  0  0  0
    8.0121   -5.9672   47.2585 C   0  0  0  0  0  0  0  0  0  0  0  0
    6.6943   -5.9380   47.6144 N   0  0  0  0  0  0  0  0  0  0  0  0
    8.4636   -6.8033   46.5138 O   0  0  0  0  0  0  0  0  0  0  0  0
    6.2872   -5.2375   48.2371 H   0  0  0  0  0  0  0  0  0  0  0  0
    8.8436   -4.8542   47.8747 C   0  0  0  0  0  0  0  0  0  0  0  0
    8.4338   -3.4737   47.4158 C   0  0  0  0  0  0  0  0  0  0  0  0
    7.1923   -2.9435   47.7877 C   0  0  0  0  0  0  0  0  0  0  0  0
    6.7986   -1.6726   47.3636 C   0  0  0  0  0  0  0  0  0  0  0  0
    7.6409   -0.9160   46.5483 C   0  0  0  0  0  0  0  0  0  0  0  0
    8.8788   -1.4349   46.1655 C   0  0  0  0  0  0  0  0  0  0  0  0
    9.2702   -2.7033   46.5979 C   0  0  0  0  0  0  0  0  0  0  0  0
   -4.6775   -7.4466   44.1456 C   0  0  0  0  0  0  0  0  0  0  0  0
   -5.4125   -7.3740   45.3368 C   0  0  0  0  0  0  0  0  0  0  0  0
   -6.7227   -6.8862   45.3292 C   0  0  0  0  0  0  0  0  0  0  0  0
   -7.3060   -6.4680   44.1300 C   0  0  0  0  0  0  0  0  0  0  0  0
   -6.5793   -6.5374   42.9381 C   0  0  0  0  0  0  0  0  0  0  0  0
   -5.2691   -7.0251   42.9456 C   0  0  0  0  0  0  0  0  0  0  0  0
 22 20  2  0  0  0
 21 20  1  0  0  0
 20 24  1  0  0  0
 24 25  1  0  0  0
 25 26  2  0  0  0
 25 30  1  0  0  0
 26 27  1  0  0  0
 27 28  2  0  0  0
 28 29  1  0  0  0
 29 30  2  0  0  0
 14 15  2  0  0  0
 15 16  1  0  0  0
 16 17  2  0  0  0
 17  1  1  0  0  0
 17 18  1  0  0  0
  1  2  2  0  0  0
  1  3  1  0  0  0
  3  4  1  0  0  0
  4  5  1  0  0  0
  5  6  1  0  0  0
  6  7  1  0  0  0
  6  9  1  0  0  0
  7  8  1  0  0  0
  8  3  1  0  0  0
  9 10  1  0  0  0
 10 31  1  0  0  0
 10 11  2  0  0  0
 31 32  2  0  0  0
 32 33  1  0  0  0
 33 34  2  0  0  0
 34 35  1  0  0  0
 35 36  2  0  0  0
 36 31  1  0  0  0
 11 12  1  0  0  0
 12  6  1  0  0  0
 18 19  2  0  0  0
 19 14  1  0  0  0
 21 14  1  0  0  0
 21 23  1  0  0  0
  9 13  1  0  0  0
M  END
>  <minimizedAffinity>
-11.8811

>  <minimizedRMSD>
3.48391

>  <molecular weight>
430.33

$$$$
595118 1 Cc1cc[c:1](o1)[C:2](=[O:3])[N:4]([C:5]1CCC(CC1)CC1CC[C:5]CC1)[H:6].[HH:6]


 34 37  0  0  0  0  0  0  0  0999 V2000
    3.2790   -9.7073   45.1435 C   0  0  0  0  0  0  0  0  0  0  0  0
   -0.5875   -8.7980   46.0291 C   0  0  0  0  0  0  0  0  0  0  0  0
   -0.4565  -10.2278   45.4879 C   0  0  0  0  0  0  0  0  0  0  0  0
    1.0055  -10.6641   45.4916 C   0  0  0  0  0  0  0  0  0  0  0  0
    1.8674   -9.7784   44.5799 C   0  0  0  0  0  0  0  0  0  0  0  0
    1.2918   -8.3663   44.3706 C   0  0  0  0  0  0  0  0  0  0  0  0
    0.5583   -7.8599   45.6128 C   0  0  0  0  0  0  0  0  0  0  0  0
   -2.4044   -8.1020   44.3612 C   0  0  0  0  0  0  0  0  0  0  0  0
   -1.7466   -8.5310   43.3749 O   0  0  0  0  0  0  0  0  0  0  0  0
   -1.8870   -8.2254   45.6913 N   0  0  0  0  0  0  0  0  0  0  0  0
   -2.4748   -7.8852   46.4657 H   0  0  0  0  0  0  0  0  0  0  0  0
   -7.1951   -7.2235   44.7746 C   0  0  0  0  0  0  0  0  0  0  0  0
   -5.7829   -7.0883   44.3314 C   0  0  0  0  0  0  0  0  0  0  0  0
   -5.3175   -6.1358   43.4466 C   0  0  0  0  0  0  0  0  0  0  0  0
   -3.9583   -6.3847   43.3281 C   0  0  0  0  0  0  0  0  0  0  0  0
   -3.7104   -7.4692   44.1522 C   0  0  0  0  0  0  0  0  0  0  0  0
   -4.8126   -7.8673   44.7362 O   0  0  0  0  0  0  0  0  0  0  0  0
    3.4290   -8.5477   46.1176 C   0  0  0  0  0  0  0  0  0  0  0  0
    4.1281   -9.0476   47.3888 C   0  0  0  0  0  0  0  0  0  0  0  0
    4.8855   -7.9215   48.0839 C   0  0  0  0  0  0  0  0  0  0  0  0
    6.0036   -7.3778   47.1860 C   0  0  0  0  0  0  0  0  0  0  0  0
    5.6604   -7.4240   45.6855 C   0  0  0  0  0  0  0  0  0  0  0  0
    4.1522   -7.3655   45.4475 C   0  0  0  0  0  0  0  0  0  0  0  0
    7.6294   -5.5035   47.4195 C   0  0  0  0  0  0  0  0  0  0  0  0
    6.3553   -5.9621   47.5944 N   0  0  0  0  0  0  0  0  0  0  0  0
    8.5111   -6.1956   46.9712 O   0  0  0  0  0  0  0  0  0  0  0  0
    5.5763   -5.4326   47.9936 H   0  0  0  0  0  0  0  0  0  0  0  0
    7.8261   -4.0533   47.8293 C   0  0  0  0  0  0  0  0  0  0  0  0
    7.8788   -3.0998   46.6577 C   0  0  0  0  0  0  0  0  0  0  0  0
    6.8616   -3.1038   45.6954 C   0  0  0  0  0  0  0  0  0  0  0  0
    6.9028   -2.2334   44.6041 C   0  0  0  0  0  0  0  0  0  0  0  0
    7.9732   -1.3512   44.4540 C   0  0  0  0  0  0  0  0  0  0  0  0
    8.9967   -1.3409   45.4030 C   0  0  0  0  0  0  0  0  0  0  0  0
    8.9470   -2.2084   46.4956 C   0  0  0  0  0  0  0  0  0  0  0  0
 26 24  2  0  0  0
 25 24  1  0  0  0
 24 28  1  0  0  0
 28 29  1  0  0  0
 29 30  2  0  0  0
 29 34  1  0  0  0
 30 31  1  0  0  0
 31 32  2  0  0  0
 32 33  1  0  0  0
 33 34  2  0  0  0
 12 13  1  0  0  0
 13 14  2  0  0  0
 14 15  1  0  0  0
 15 16  2  0  0  0
 16  8  1  0  0  0
  8  9  2  0  0  0
  8 10  1  0  0  0
 10  2  1  0  0  0
  2  3  1  0  0  0
  3  4  1  0  0  0
  4  5  1  0  0  0
  5  1  1  0  0  0
  1 18  1  0  0  0
 18 19  1  0  0  0
 19 20  1  0  0  0
 20 21  1  0  0  0
 21 22  1  0  0  0
 22 23  1  0  0  0
  5  6  1  0  0  0
  6  7  1  0  0  0
 16 17  1  0  0  0
 17 13  1  0  0  0
  7  2  1  0  0  0
 23 18  1  0  0  0
 10 11  1  0  0  0
 25 21  1  0  0  0
 25 27  1  0  0  0
M  END
>  <minimizedAffinity>
-11.282

>  <minimizedRMSD>
2.7332

>  <molecular weight>
402.316

$$$$
355871 1 OC(=O)c1ccc(o1)-c1ccc(cc1)C(=O)C=Cc1cc[c:5]cc1.[HH:6]


 36 39  0  0  0  0  0  0  0  0999 V2000
   -0.0811  -10.7450   45.7570 C   0  0  0  0  0  0  0  0  0  0  0  0
   -1.1464  -10.2044   45.1504 C   0  0  0  0  0  0  0  0  0  0  0  0
    3.7681   -8.8970   46.1220 C   0  0  0  0  0  0  0  0  0  0  0  0
    3.6430  -10.1083   45.4346 C   0  0  0  0  0  0  0  0  0  0  0  0
    2.3971  -10.7317   45.3220 C   0  0  0  0  0  0  0  0  0  0  0  0
    1.2617  -10.1587   45.9125 C   0  0  0  0  0  0  0  0  0  0  0  0
    1.3809   -8.9322   46.5733 C   0  0  0  0  0  0  0  0  0  0  0  0
    2.6265   -8.3084   46.6857 C   0  0  0  0  0  0  0  0  0  0  0  0
    5.5843   -7.6583   47.3723 C   0  0  0  0  0  0  0  0  0  0  0  0
    5.1130   -8.2458   46.2335 N   0  0  0  0  0  0  0  0  0  0  0  0
    4.9461   -7.6263   48.3966 O   0  0  0  0  0  0  0  0  0  0  0  0
    5.6368   -8.2928   45.3573 H   0  0  0  0  0  0  0  0  0  0  0  0
    6.9761   -7.0643   47.2310 C   0  0  0  0  0  0  0  0  0  0  0  0
    6.9750   -5.5606   47.0781 C   0  0  0  0  0  0  0  0  0  0  0  0
    6.1234   -4.9438   46.1535 C   0  0  0  0  0  0  0  0  0  0  0  0
    6.1186   -3.5561   45.9970 C   0  0  0  0  0  0  0  0  0  0  0  0
    6.9780   -2.7641   46.7590 C   0  0  0  0  0  0  0  0  0  0  0  0
    7.8361   -3.3667   47.6803 C   0  0  0  0  0  0  0  0  0  0  0  0
    7.8319   -4.7538   47.8375 C   0  0  0  0  0  0  0  0  0  0  0  0
   -1.1931   -8.9549   44.3633 C   0  0  0  0  0  0  0  0  0  0  0  0
   -0.1666   -8.5497   43.7532 O   0  0  0  0  0  0  0  0  0  0  0  0
   -2.4632   -8.2149   44.2191 C   0  0  0  0  0  0  0  0  0  0  0  0
   -3.2681   -7.9441   45.3361 C   0  0  0  0  0  0  0  0  0  0  0  0
   -4.4670   -7.2408   45.1919 C   0  0  0  0  0  0  0  0  0  0  0  0
   -4.8788   -6.7969   43.9280 C   0  0  0  0  0  0  0  0  0  0  0  0
   -4.0773   -7.0647   42.8117 C   0  0  0  0  0  0  0  0  0  0  0  0
   -2.8784   -7.7681   42.9561 C   0  0  0  0  0  0  0  0  0  0  0  0
   -6.1394   -6.0555   43.7656 C   0  0  0  0  0  0  0  0  0  0  0  0
   -7.4128   -6.5849   43.8980 C   0  0  0  0  0  0  0  0  0  0  0  0
   -8.2787   -5.5295   43.6598 C   0  0  0  0  0  0  0  0  0  0  0  0
   -7.4650   -4.4422   43.4015 C   0  0  0  0  0  0  0  0  0  0  0  0
   -6.2021   -4.7804   43.4703 O   0  0  0  0  0  0  0  0  0  0  0  0
   -7.9328   -3.0887   43.0912 C   0  0  0  0  0  0  0  0  0  0  0  0
   -7.1439   -2.1124   43.1842 O   0  0  0  0  0  0  0  0  0  0  0  0
   -9.2468   -2.8755   42.6933 O   0  0  0  0  0  0  0  0  0  0  0  0
   -9.8381   -3.5989   42.6225 H   0  0  0  0  0  0  0  0  0  0  0  0
 11  9  2  0  0  0
 10  9  1  0  0  0
  9 13  1  0  0  0
 13 14  1  0  0  0
 14 15  2  0  0  0
 14 19  1  0  0  0
 15 16  1  0  0  0
 16 17  2  0  0  0
 17 18  1  0  0  0
 18 19  2  0  0  0
  3  4  2  0  0  0
  4  5  1  0  0  0
  5  6  2  0  0  0
  6  7  1  0  0  0
  6  1  1  0  0  0
  7  8  2  0  0  0
  8  3  1  0  0  0
  1  2  2  0  0  0
  2 20  1  0  0  0
 20 21  2  0  0  0
 20 22  1  0  0  0
 22 23  2  0  0  0
 23 24  1  0  0  0
 24 25  2  0  0  0
 25 26  1  0  0  0
 25 28  1  0  0  0
 26 27  2  0  0  0
 27 22  1  0  0  0
 28 29  2  0  0  0
 29 30  1  0  0  0
 30 31  2  0  0  0
 31 32  1  0  0  0
 31 33  1  0  0  0
 32 28  1  0  0  0
 33 34  2  0  0  0
 33 35  1  0  0  0
 10  3  1  0  0  0
 10 12  1  0  0  0
 35 36  1  0  0  0
M  END
>  <minimizedAffinity>
-11.2179

>  <minimizedRMSD>
4.27199

>  <molecular weight>
432.319

$$$$
860538 1 FC(F)(F)c1ccc[c:5](c1)[N:4]([C:2]([c:1]1ccc[c:5]c1)=[O:3])[H:6].[HH:6]


 31 33  0  0  0  0  0  0  0  0999 V2000
    6.3529   -6.8811   47.3224 C   0  0  0  0  0  0  0  0  0  0  0  0
    6.4594   -5.5397   47.7112 C   0  0  0  0  0  0  0  0  0  0  0  0
    7.7106   -4.9124   47.7662 C   0  0  0  0  0  0  0  0  0  0  0  0
    8.8632   -5.6436   47.4423 C   0  0  0  0  0  0  0  0  0  0  0  0
    8.7630   -6.9819   47.0508 C   0  0  0  0  0  0  0  0  0  0  0  0
    7.5099   -7.6004   46.9857 C   0  0  0  0  0  0  0  0  0  0  0  0
    8.1460   -2.6805   46.9886 C   0  0  0  0  0  0  0  0  0  0  0  0
    7.8181   -3.4436   48.0722 N   0  0  0  0  0  0  0  0  0  0  0  0
    9.0890   -2.9346   46.2789 O   0  0  0  0  0  0  0  0  0  0  0  0
    7.3656   -3.1120   48.9264 H   0  0  0  0  0  0  0  0  0  0  0  0
    7.2157   -1.5008   46.7589 C   0  0  0  0  0  0  0  0  0  0  0  0
    5.9940   -1.8496   45.9403 C   0  0  0  0  0  0  0  0  0  0  0  0
    5.9614   -3.0275   45.1838 C   0  0  0  0  0  0  0  0  0  0  0  0
    4.8418   -3.3571   44.4169 C   0  0  0  0  0  0  0  0  0  0  0  0
    3.7391   -2.5029   44.3874 C   0  0  0  0  0  0  0  0  0  0  0  0
    3.7608   -1.3226   45.1323 C   0  0  0  0  0  0  0  0  0  0  0  0
    4.8799   -1.0015   45.9025 C   0  0  0  0  0  0  0  0  0  0  0  0
    4.3625   -7.7571   46.0602 N   0  0  0  0  0  0  0  0  0  0  0  0
    5.0395   -7.5364   47.3056 C   0  0  0  0  0  0  0  0  0  0  0  0
    4.5030   -7.8894   48.3936 O   0  0  0  0  0  0  0  0  0  0  0  0
    4.7313   -7.2815   45.2244 H   0  0  0  0  0  0  0  0  0  0  0  0
    0.8265   -8.7909   45.4388 C   0  0  0  0  0  0  0  0  0  0  0  0
    0.9615  -10.1849   45.3954 C   0  0  0  0  0  0  0  0  0  0  0  0
    2.2100  -10.7842   45.5962 C   0  0  0  0  0  0  0  0  0  0  0  0
    3.3331   -9.9862   45.8412 C   0  0  0  0  0  0  0  0  0  0  0  0
    3.2123   -8.5902   45.8971 C   0  0  0  0  0  0  0  0  0  0  0  0
    1.9610   -7.9961   45.6693 C   0  0  0  0  0  0  0  0  0  0  0  0
   -0.5460   -6.8555   45.6610 F   0  0  0  0  0  0  0  0  0  0  0  0
   -0.5193   -8.1646   45.2087 C   0  0  0  0  0  0  0  0  0  0  0  0
   -1.4870   -8.8888   45.8820 F   0  0  0  0  0  0  0  0  0  0  0  0
   -0.8098   -8.1752   43.8563 F   0  0  0  0  0  0  0  0  0  0  0  0
  9  7  2  0  0  0
  8  7  1  0  0  0
  7 11  1  0  0  0
 11 12  1  0  0  0
 12 13  2  0  0  0
 12 17  1  0  0  0
 13 14  1  0  0  0
 14 15  2  0  0  0
 15 16  1  0  0  0
 16 17  2  0  0  0
 28 29  1  0  0  0
 29 30  1  0  0  0
 29 31  1  0  0  0
 29 22  1  0  0  0
 22 23  2  0  0  0
 23 24  1  0  0  0
 24 25  2  0  0  0
 25 26  1  0  0  0
 26 18  1  0  0  0
 26 27  2  0  0  0
 18 19  1  0  0  0
 19 20  2  0  0  0
 19  1  1  0  0  0
  1  2  2  0  0  0
  2  3  1  0  0  0
  3  4  2  0  0  0
  4  5  1  0  0  0
  5  6  2  0  0  0
  6  1  1  0  0  0
 27 22  1  0  0  0
 18 21  1  0  0  0
  8  5  1  0  0  0
  8 10  1  0  0  0
M  END
>  <minimizedAffinity>
-11.211

>  <minimizedRMSD>
4.56164

>  <molecular weight>
383.259

$$$$
1656815 1 COc1cc(C=[C:1][C:2](=[O:3])[N:4]([c:5]2ccc[c:5]c2)[H:6])cc2OCCOc12.[HH:6]


 35 38  0  0  0  0  0  0  0  0999 V2000
   -1.3252   -8.3984   44.6905 C   0  0  0  0  0  0  0  0  0  0  0  0
   -0.9352   -8.8944   43.5983 O   0  0  0  0  0  0  0  0  0  0  0  0
   -0.4979   -8.4455   45.8599 N   0  0  0  0  0  0  0  0  0  0  0  0
   -0.8837   -8.0201   46.7149 H   0  0  0  0  0  0  0  0  0  0  0  0
    0.8108   -9.0227   45.9643 C   0  0  0  0  0  0  0  0  0  0  0  0
    1.8506   -8.2427   46.4816 C   0  0  0  0  0  0  0  0  0  0  0  0
    3.1443   -8.7616   46.6037 C   0  0  0  0  0  0  0  0  0  0  0  0
    3.3951  -10.0808   46.1985 C   0  0  0  0  0  0  0  0  0  0  0  0
    2.3640  -10.8679   45.6807 C   0  0  0  0  0  0  0  0  0  0  0  0
    1.0759  -10.3407   45.5641 C   0  0  0  0  0  0  0  0  0  0  0  0
    5.4209   -7.6535   46.5191 C   0  0  0  0  0  0  0  0  0  0  0  0
    4.2405   -7.8977   47.1602 N   0  0  0  0  0  0  0  0  0  0  0  0
    5.6789   -8.1214   45.4365 O   0  0  0  0  0  0  0  0  0  0  0  0
    3.9952   -7.5170   48.0758 H   0  0  0  0  0  0  0  0  0  0  0  0
    6.3630   -6.7397   47.2854 C   0  0  0  0  0  0  0  0  0  0  0  0
    6.3051   -5.2994   46.8307 C   0  0  0  0  0  0  0  0  0  0  0  0
    5.5651   -4.9445   45.6961 C   0  0  0  0  0  0  0  0  0  0  0  0
    5.5101   -3.6186   45.2610 C   0  0  0  0  0  0  0  0  0  0  0  0
    6.2075   -2.6271   45.9518 C   0  0  0  0  0  0  0  0  0  0  0  0
    6.9537   -2.9682   47.0811 C   0  0  0  0  0  0  0  0  0  0  0  0
    6.9996   -4.2942   47.5155 C   0  0  0  0  0  0  0  0  0  0  0  0
   -3.3753   -7.4949   43.7065 C   0  0  0  0  0  0  0  0  0  0  0  0
   -2.6416   -7.7603   44.7851 C   0  0  0  0  0  0  0  0  0  0  0  0
   -7.0194   -6.9825   44.5102 C   0  0  0  0  0  0  0  0  0  0  0  0
   -5.7387   -7.5398   44.4145 C   0  0  0  0  0  0  0  0  0  0  0  0
   -4.6962   -6.8559   43.7819 C   0  0  0  0  0  0  0  0  0  0  0  0
   -4.9308   -5.5831   43.2447 C   0  0  0  0  0  0  0  0  0  0  0  0
   -6.1975   -5.0071   43.3379 C   0  0  0  0  0  0  0  0  0  0  0  0
   -7.2531   -5.7060   43.9475 C   0  0  0  0  0  0  0  0  0  0  0  0
   -8.5166   -5.1031   43.9753 O   0  0  0  0  0  0  0  0  0  0  0  0
   -8.8144   -3.9655   43.1640 C   0  0  0  0  0  0  0  0  0  0  0  0
   -7.6220   -3.0112   43.1444 C   0  0  0  0  0  0  0  0  0  0  0  0
   -6.4287   -3.7275   42.8246 O   0  0  0  0  0  0  0  0  0  0  0  0
   -8.2748   -7.6885   46.5528 C   0  0  0  0  0  0  0  0  0  0  0  0
   -8.0056   -7.7394   45.1591 O   0  0  0  0  0  0  0  0  0  0  0  0
 13 11  2  0  0  0
 12 11  1  0  0  0
 11 15  1  0  0  0
 15 16  1  0  0  0
 16 17  2  0  0  0
 16 21  1  0  0  0
 17 18  1  0  0  0
 18 19  2  0  0  0
 19 20  1  0  0  0
 20 21  2  0  0  0
 34 35  1  0  0  0
 35 24  1  0  0  0
 24 25  2  0  0  0
 25 26  1  0  0  0
 26 27  2  0  0  0
 26 22  1  0  0  0
 27 28  1  0  0  0
 28 29  2  0  0  0
 29 30  1  0  0  0
 29 24  1  0  0  0
 30 31  1  0  0  0
 31 32  1  0  0  0
 32 33  1  0  0  0
 33 28  1  0  0  0
 22 23  2  0  0  0
 23  1  1  0  0  0
  1  2  2  0  0  0
  1  3  1  0  0  0
  3  5  1  0  0  0
  5  6  2  0  0  0
  6  7  1  0  0  0
  7  8  2  0  0  0
  8  9  1  0  0  0
  9 10  2  0  0  0
 10  5  1  0  0  0
  3  4  1  0  0  0
 12  7  1  0  0  0
 12 14  1  0  0  0
M  END
>  <minimizedAffinity>
-11.1703

>  <minimizedRMSD>
5.7

>  <molecular weight>
422.304

$$$$
1584672 1 Clc1cccc(c1)-c1c[c:1](nn1)[C:2](=[O:3])[N:4]1[C:5]C[C:5]C[C:6]1.[HH:6]


 31 34  0  0  0  0  0  0  0  0999 V2000
   -0.5299   -9.6678   45.2196 C   0  0  0  0  0  0  0  0  0  0  0  0
   -0.7936  -10.8734   45.4806 O   0  0  0  0  0  0  0  0  0  0  0  0
    0.7218   -9.1101   45.6680 N   0  0  0  0  0  0  0  0  0  0  0  0
    1.2272   -7.8359   45.1527 C   0  0  0  0  0  0  0  0  0  0  0  0
    2.6713   -7.9839   44.6670 C   0  0  0  0  0  0  0  0  0  0  0  0
    3.5485   -8.8372   45.5962 C   0  0  0  0  0  0  0  0  0  0  0  0
    2.8584   -9.1739   46.9194 C   0  0  0  0  0  0  0  0  0  0  0  0
    1.5226   -9.8605   46.6425 C   0  0  0  0  0  0  0  0  0  0  0  0
   -3.2179   -7.6662   43.8664 C   0  0  0  0  0  0  0  0  0  0  0  0
   -2.5867   -8.0852   42.7538 N   0  0  0  0  0  0  0  0  0  0  0  0
   -1.5616   -8.8337   43.1213 N   0  0  0  0  0  0  0  0  0  0  0  0
   -1.5357   -8.8869   44.4668 C   0  0  0  0  0  0  0  0  0  0  0  0
   -2.5860   -8.1564   44.9960 C   0  0  0  0  0  0  0  0  0  0  0  0
   -7.9539   -6.5839   45.7873 Cl  0  0  0  0  0  0  0  0  0  0  0  0
   -6.6209   -6.2495   44.7043 C   0  0  0  0  0  0  0  0  0  0  0  0
   -6.6873   -5.1633   43.8277 C   0  0  0  0  0  0  0  0  0  0  0  0
   -5.6206   -4.8951   42.9655 C   0  0  0  0  0  0  0  0  0  0  0  0
   -4.4871   -5.7135   42.9800 C   0  0  0  0  0  0  0  0  0  0  0  0
   -4.4128   -6.8057   43.8563 C   0  0  0  0  0  0  0  0  0  0  0  0
   -5.4881   -7.0686   44.7181 C   0  0  0  0  0  0  0  0  0  0  0  0
    5.1378   -7.6304   47.1029 C   0  0  0  0  0  0  0  0  0  0  0  0
    4.8710   -8.1371   45.8635 N   0  0  0  0  0  0  0  0  0  0  0  0
    4.3632   -7.7295   48.0237 O   0  0  0  0  0  0  0  0  0  0  0  0
    5.4909   -8.0998   45.0515 H   0  0  0  0  0  0  0  0  0  0  0  0
    6.4906   -6.9466   47.2132 C   0  0  0  0  0  0  0  0  0  0  0  0
    6.4451   -5.4698   46.8948 C   0  0  0  0  0  0  0  0  0  0  0  0
    5.7009   -5.0034   45.8042 C   0  0  0  0  0  0  0  0  0  0  0  0
    5.6573   -3.6424   45.4946 C   0  0  0  0  0  0  0  0  0  0  0  0
    6.3703   -2.7266   46.2689 C   0  0  0  0  0  0  0  0  0  0  0  0
    7.1208   -3.1788   47.3554 C   0  0  0  0  0  0  0  0  0  0  0  0
    7.1554   -4.5397   47.6644 C   0  0  0  0  0  0  0  0  0  0  0  0
 23 21  2  0  0  0
 22 21  1  0  0  0
 21 25  1  0  0  0
 25 26  1  0  0  0
 26 27  2  0  0  0
 26 31  1  0  0  0
 27 28  1  0  0  0
 28 29  2  0  0  0
 29 30  1  0  0  0
 30 31  2  0  0  0
 14 15  1  0  0  0
 15 16  2  0  0  0
 16 17  1  0  0  0
 17 18  2  0  0  0
 18 19  1  0  0  0
 19 20  2  0  0  0
 19  9  1  0  0  0
 20 15  1  0  0  0
  9 10  2  0  0  0
 10 11  1  0  0  0
 11 12  2  0  0  0
 12 13  1  0  0  0
 12  1  1  0  0  0
 13  9  1  0  0  0
  1  2  2  0  0  0
  1  3  1  0  0  0
  3  4  1  0  0  0
  4  5  1  0  0  0
  5  6  1  0  0  0
  6  7  1  0  0  0
  7  8  1  0  0  0
  8  3  1  0  0  0
 22  6  1  0  0  0
 22 24  1  0  0  0
M  END
>  <minimizedAffinity>
-11.123

>  <minimizedRMSD>
5.40483

>  <molecular weight>
400.733

$$$$
2104368 1 Clc1ccc(C=[C:1][C:2](=[O:3])[N:4]([c:5]2ccc[c:5]c2)[H:6])cc1.[HH:6]


 30 32  0  0  0  0  0  0  0  0999 V2000
    0.7379   -8.9021   45.8803 C   0  0  0  0  0  0  0  0  0  0  0  0
    0.9405  -10.2480   45.5419 C   0  0  0  0  0  0  0  0  0  0  0  0
    2.1911  -10.8417   45.7275 C   0  0  0  0  0  0  0  0  0  0  0  0
    3.2470  -10.0933   46.2526 C   0  0  0  0  0  0  0  0  0  0  0  0
    3.0589   -8.7463   46.5953 C   0  0  0  0  0  0  0  0  0  0  0  0
    1.8024   -8.1612   46.4056 C   0  0  0  0  0  0  0  0  0  0  0  0
    5.3613   -7.7041   46.5147 C   0  0  0  0  0  0  0  0  0  0  0  0
    4.1788   -7.9243   47.1606 N   0  0  0  0  0  0  0  0  0  0  0  0
    5.5954   -8.1559   45.4199 O   0  0  0  0  0  0  0  0  0  0  0  0
    3.9503   -7.5509   48.0835 H   0  0  0  0  0  0  0  0  0  0  0  0
    6.3387   -6.8383   47.2926 C   0  0  0  0  0  0  0  0  0  0  0  0
    6.3266   -5.3880   46.8673 C   0  0  0  0  0  0  0  0  0  0  0  0
    5.5904   -4.9850   45.7465 C   0  0  0  0  0  0  0  0  0  0  0  0
    5.5776   -3.6495   45.3385 C   0  0  0  0  0  0  0  0  0  0  0  0
    6.3140   -2.6967   46.0430 C   0  0  0  0  0  0  0  0  0  0  0  0
    7.0570   -3.0859   47.1587 C   0  0  0  0  0  0  0  0  0  0  0  0
    7.0607   -4.4212   47.5661 C   0  0  0  0  0  0  0  0  0  0  0  0
   -1.3821   -8.3349   44.5545 C   0  0  0  0  0  0  0  0  0  0  0  0
   -1.0541   -9.0220   43.5488 O   0  0  0  0  0  0  0  0  0  0  0  0
   -0.5308   -8.2568   45.7047 N   0  0  0  0  0  0  0  0  0  0  0  0
   -0.8652   -7.6766   46.4872 H   0  0  0  0  0  0  0  0  0  0  0  0
   -3.3138   -7.3217   43.4458 C   0  0  0  0  0  0  0  0  0  0  0  0
   -2.6494   -7.5981   44.5657 C   0  0  0  0  0  0  0  0  0  0  0  0
   -8.4722   -4.2152   43.3484 Cl  0  0  0  0  0  0  0  0  0  0  0  0
   -6.9787   -5.1268   43.3835 C   0  0  0  0  0  0  0  0  0  0  0  0
   -5.8440   -4.6341   42.7330 C   0  0  0  0  0  0  0  0  0  0  0  0
   -4.6505   -5.3620   42.7607 C   0  0  0  0  0  0  0  0  0  0  0  0
   -4.5848   -6.5845   43.4380 C   0  0  0  0  0  0  0  0  0  0  0  0
   -5.7278   -7.0752   44.0900 C   0  0  0  0  0  0  0  0  0  0  0  0
   -6.9210   -6.3472   44.0622 C   0  0  0  0  0  0  0  0  0  0  0  0
  9  7  2  0  0  0
  8  7  1  0  0  0
  7 11  1  0  0  0
 11 12  1  0  0  0
 12 13  2  0  0  0
 12 17  1  0  0  0
 13 14  1  0  0  0
 14 15  2  0  0  0
 15 16  1  0  0  0
 16 17  2  0  0  0
 24 25  1  0  0  0
 25 26  2  0  0  0
 26 27  1  0  0  0
 27 28  2  0  0  0
 28 22  1  0  0  0
 28 29  1  0  0  0
 22 23  2  0  0  0
 23 18  1  0  0  0
 18 19  2  0  0  0
 18 20  1  0  0  0
 20  1  1  0  0  0
  1  2  2  0  0  0
  2  3  1  0  0  0
  3  4  2  0  0  0
  4  5  1  0  0  0
  5  6  2  0  0  0
  6  1  1  0  0  0
 29 30  2  0  0  0
 30 25  1  0  0  0
 20 21  1  0  0  0
  8  5  1  0  0  0
  8 10  1  0  0  0
M  END
>  <minimizedAffinity>
-11.0634

>  <minimizedRMSD>
5.14755

>  <molecular weight>
373.727

$$$$
2104367 1 Clc1ccc(C=[C:1][C:2](=[O:3])[N:4]([c:5]2ccc[c:5]c2)[H:6])cc1.[HH:6]


 30 32  0  0  0  0  0  0  0  0999 V2000
    0.7381   -8.9020   45.8803 C   0  0  0  0  0  0  0  0  0  0  0  0
    0.9406  -10.2481   45.5418 C   0  0  0  0  0  0  0  0  0  0  0  0
    2.1913  -10.8417   45.7274 C   0  0  0  0  0  0  0  0  0  0  0  0
    3.2471  -10.0932   46.2526 C   0  0  0  0  0  0  0  0  0  0  0  0
    3.0590   -8.7462   46.5954 C   0  0  0  0  0  0  0  0  0  0  0  0
    1.8023   -8.1612   46.4056 C   0  0  0  0  0  0  0  0  0  0  0  0
    5.3613   -7.7039   46.5147 C   0  0  0  0  0  0  0  0  0  0  0  0
    4.1788   -7.9242   47.1606 N   0  0  0  0  0  0  0  0  0  0  0  0
    5.5954   -8.1557   45.4198 O   0  0  0  0  0  0  0  0  0  0  0  0
    3.9503   -7.5508   48.0835 H   0  0  0  0  0  0  0  0  0  0  0  0
    6.3387   -6.8381   47.2926 C   0  0  0  0  0  0  0  0  0  0  0  0
    6.3267   -5.3878   46.8673 C   0  0  0  0  0  0  0  0  0  0  0  0
    5.5905   -4.9848   45.7465 C   0  0  0  0  0  0  0  0  0  0  0  0
    5.5777   -3.6493   45.3385 C   0  0  0  0  0  0  0  0  0  0  0  0
    6.3141   -2.6965   46.0430 C   0  0  0  0  0  0  0  0  0  0  0  0
    7.0571   -3.0858   47.1587 C   0  0  0  0  0  0  0  0  0  0  0  0
    7.0608   -4.4210   47.5661 C   0  0  0  0  0  0  0  0  0  0  0  0
   -1.3822   -8.3350   44.5545 C   0  0  0  0  0  0  0  0  0  0  0  0
   -1.0542   -9.0221   43.5488 O   0  0  0  0  0  0  0  0  0  0  0  0
   -0.5307   -8.2569   45.7047 N   0  0  0  0  0  0  0  0  0  0  0  0
   -0.8651   -7.6766   46.4872 H   0  0  0  0  0  0  0  0  0  0  0  0
   -3.3137   -7.3216   43.4458 C   0  0  0  0  0  0  0  0  0  0  0  0
   -2.6496   -7.5982   44.5658 C   0  0  0  0  0  0  0  0  0  0  0  0
   -8.4719   -4.2150   43.3484 Cl  0  0  0  0  0  0  0  0  0  0  0  0
   -6.9786   -5.1265   43.3836 C   0  0  0  0  0  0  0  0  0  0  0  0
   -6.9209   -6.3471   44.0622 C   0  0  0  0  0  0  0  0  0  0  0  0
   -5.7278   -7.0749   44.0899 C   0  0  0  0  0  0  0  0  0  0  0  0
   -4.5847   -6.5844   43.4380 C   0  0  0  0  0  0  0  0  0  0  0  0
   -4.6503   -5.3618   42.7608 C   0  0  0  0  0  0  0  0  0  0  0  0
   -5.8437   -4.6339   42.7332 C   0  0  0  0  0  0  0  0  0  0  0  0
  9  7  2  0  0  0
  8  7  1  0  0  0
  7 11  1  0  0  0
 11 12  1  0  0  0
 12 13  2  0  0  0
 12 17  1  0  0  0
 13 14  1  0  0  0
 14 15  2  0  0  0
 15 16  1  0  0  0
 16 17  2  0  0  0
 24 25  1  0  0  0
 25 26  2  0  0  0
 26 27  1  0  0  0
 27 28  2  0  0  0
 28 22  1  0  0  0
 28 29  1  0  0  0
 22 23  2  0  0  0
 23 18  1  0  0  0
 18 19  2  0  0  0
 18 20  1  0  0  0
 20  1  1  0  0  0
  1  2  2  0  0  0
  2  3  1  0  0  0
  3  4  2  0  0  0
  4  5  1  0  0  0
  5  6  2  0  0  0
  6  1  1  0  0  0
 29 30  2  0  0  0
 30 25  1  0  0  0
 20 21  1  0  0  0
  8  5  1  0  0  0
  8 10  1  0  0  0
M  END
>  <minimizedAffinity>
-11.0633

>  <minimizedRMSD>
5.14765

>  <molecular weight>
373.727

$$$$
